*SPEF "ieee 1481-1999"
*DESIGN "user_module"
*DATE "11:11:11 Fri 11 11, 1111"
*VENDOR "OpenRCX"
*PROGRAM "Parallel Extraction"
*VERSION "1.0"
*DESIGN_FLOW "NAME_SCOPE LOCAL" "PIN_CAP NONE"
*DIVIDER /
*DELIMITER :
*BUS_DELIMITER []
*T_UNIT 1 NS
*C_UNIT 1 PF
*R_UNIT 1 OHM
*L_UNIT 1 HENRY

*NAME_MAP
*1 io_in[0]
*2 io_in[1]
*3 io_in[2]
*4 io_in[3]
*5 io_in[4]
*6 io_in[5]
*7 io_in[6]
*8 io_in[7]
*9 io_out[0]
*10 io_out[1]
*11 io_out[2]
*12 io_out[3]
*13 io_out[4]
*14 io_out[5]
*15 net9
*16 io_out[7]
*19 gate3\.out
*20 net1
*21 net2
*22 net3
*23 net4
*24 net5
*25 net6
*26 net7
*27 net8
*28 not1\.out
*29 not2\.out
*30 not3\.out
*31 not4\.out
*32 FILLER_0_109
*33 FILLER_0_113
*34 FILLER_0_121
*35 FILLER_0_132
*36 FILLER_0_141
*37 FILLER_0_153
*38 FILLER_0_165
*39 FILLER_0_169
*40 FILLER_0_18
*41 FILLER_0_181
*42 FILLER_0_193
*43 FILLER_0_197
*44 FILLER_0_209
*45 FILLER_0_221
*46 FILLER_0_225
*47 FILLER_0_237
*48 FILLER_0_249
*49 FILLER_0_253
*50 FILLER_0_26
*51 FILLER_0_265
*52 FILLER_0_277
*53 FILLER_0_281
*54 FILLER_0_29
*55 FILLER_0_293
*56 FILLER_0_305
*57 FILLER_0_309
*58 FILLER_0_321
*59 FILLER_0_333
*60 FILLER_0_337
*61 FILLER_0_349
*62 FILLER_0_361
*63 FILLER_0_365
*64 FILLER_0_377
*65 FILLER_0_388
*66 FILLER_0_396
*67 FILLER_0_408
*68 FILLER_0_41
*69 FILLER_0_421
*70 FILLER_0_433
*71 FILLER_0_445
*72 FILLER_0_449
*73 FILLER_0_461
*74 FILLER_0_473
*75 FILLER_0_477
*76 FILLER_0_489
*77 FILLER_0_500
*78 FILLER_0_505
*79 FILLER_0_513
*80 FILLER_0_53
*81 FILLER_0_57
*82 FILLER_0_6
*83 FILLER_0_69
*84 FILLER_0_81
*85 FILLER_0_85
*86 FILLER_0_97
*87 FILLER_10_109
*88 FILLER_10_121
*89 FILLER_10_133
*90 FILLER_10_139
*91 FILLER_10_141
*92 FILLER_10_15
*93 FILLER_10_153
*94 FILLER_10_165
*95 FILLER_10_177
*96 FILLER_10_189
*97 FILLER_10_195
*98 FILLER_10_197
*99 FILLER_10_209
*100 FILLER_10_221
*101 FILLER_10_233
*102 FILLER_10_245
*103 FILLER_10_251
*104 FILLER_10_253
*105 FILLER_10_265
*106 FILLER_10_27
*107 FILLER_10_277
*108 FILLER_10_289
*109 FILLER_10_29
*110 FILLER_10_3
*111 FILLER_10_301
*112 FILLER_10_307
*113 FILLER_10_309
*114 FILLER_10_321
*115 FILLER_10_333
*116 FILLER_10_345
*117 FILLER_10_357
*118 FILLER_10_363
*119 FILLER_10_365
*120 FILLER_10_377
*121 FILLER_10_389
*122 FILLER_10_401
*123 FILLER_10_41
*124 FILLER_10_413
*125 FILLER_10_419
*126 FILLER_10_421
*127 FILLER_10_433
*128 FILLER_10_445
*129 FILLER_10_457
*130 FILLER_10_469
*131 FILLER_10_475
*132 FILLER_10_477
*133 FILLER_10_489
*134 FILLER_10_501
*135 FILLER_10_513
*136 FILLER_10_53
*137 FILLER_10_65
*138 FILLER_10_77
*139 FILLER_10_83
*140 FILLER_10_85
*141 FILLER_10_97
*142 FILLER_11_105
*143 FILLER_11_111
*144 FILLER_11_113
*145 FILLER_11_125
*146 FILLER_11_137
*147 FILLER_11_149
*148 FILLER_11_15
*149 FILLER_11_161
*150 FILLER_11_167
*151 FILLER_11_169
*152 FILLER_11_181
*153 FILLER_11_193
*154 FILLER_11_205
*155 FILLER_11_217
*156 FILLER_11_223
*157 FILLER_11_225
*158 FILLER_11_237
*159 FILLER_11_249
*160 FILLER_11_261
*161 FILLER_11_27
*162 FILLER_11_273
*163 FILLER_11_279
*164 FILLER_11_281
*165 FILLER_11_293
*166 FILLER_11_3
*167 FILLER_11_305
*168 FILLER_11_317
*169 FILLER_11_329
*170 FILLER_11_335
*171 FILLER_11_337
*172 FILLER_11_349
*173 FILLER_11_361
*174 FILLER_11_373
*175 FILLER_11_385
*176 FILLER_11_39
*177 FILLER_11_391
*178 FILLER_11_393
*179 FILLER_11_405
*180 FILLER_11_417
*181 FILLER_11_429
*182 FILLER_11_441
*183 FILLER_11_447
*184 FILLER_11_449
*185 FILLER_11_461
*186 FILLER_11_473
*187 FILLER_11_485
*188 FILLER_11_497
*189 FILLER_11_503
*190 FILLER_11_505
*191 FILLER_11_51
*192 FILLER_11_513
*193 FILLER_11_55
*194 FILLER_11_57
*195 FILLER_11_69
*196 FILLER_11_81
*197 FILLER_11_93
*198 FILLER_12_109
*199 FILLER_12_121
*200 FILLER_12_133
*201 FILLER_12_139
*202 FILLER_12_141
*203 FILLER_12_15
*204 FILLER_12_153
*205 FILLER_12_165
*206 FILLER_12_177
*207 FILLER_12_189
*208 FILLER_12_195
*209 FILLER_12_197
*210 FILLER_12_209
*211 FILLER_12_221
*212 FILLER_12_233
*213 FILLER_12_245
*214 FILLER_12_251
*215 FILLER_12_253
*216 FILLER_12_265
*217 FILLER_12_27
*218 FILLER_12_277
*219 FILLER_12_289
*220 FILLER_12_29
*221 FILLER_12_3
*222 FILLER_12_301
*223 FILLER_12_307
*224 FILLER_12_309
*225 FILLER_12_321
*226 FILLER_12_333
*227 FILLER_12_345
*228 FILLER_12_357
*229 FILLER_12_363
*230 FILLER_12_365
*231 FILLER_12_377
*232 FILLER_12_389
*233 FILLER_12_401
*234 FILLER_12_41
*235 FILLER_12_413
*236 FILLER_12_419
*237 FILLER_12_421
*238 FILLER_12_433
*239 FILLER_12_445
*240 FILLER_12_457
*241 FILLER_12_469
*242 FILLER_12_475
*243 FILLER_12_477
*244 FILLER_12_489
*245 FILLER_12_501
*246 FILLER_12_513
*247 FILLER_12_53
*248 FILLER_12_65
*249 FILLER_12_77
*250 FILLER_12_83
*251 FILLER_12_85
*252 FILLER_12_97
*253 FILLER_13_105
*254 FILLER_13_111
*255 FILLER_13_113
*256 FILLER_13_125
*257 FILLER_13_137
*258 FILLER_13_149
*259 FILLER_13_15
*260 FILLER_13_161
*261 FILLER_13_167
*262 FILLER_13_169
*263 FILLER_13_181
*264 FILLER_13_193
*265 FILLER_13_205
*266 FILLER_13_217
*267 FILLER_13_223
*268 FILLER_13_225
*269 FILLER_13_237
*270 FILLER_13_249
*271 FILLER_13_261
*272 FILLER_13_27
*273 FILLER_13_273
*274 FILLER_13_279
*275 FILLER_13_281
*276 FILLER_13_293
*277 FILLER_13_3
*278 FILLER_13_305
*279 FILLER_13_317
*280 FILLER_13_329
*281 FILLER_13_335
*282 FILLER_13_337
*283 FILLER_13_349
*284 FILLER_13_361
*285 FILLER_13_373
*286 FILLER_13_385
*287 FILLER_13_39
*288 FILLER_13_391
*289 FILLER_13_393
*290 FILLER_13_405
*291 FILLER_13_417
*292 FILLER_13_429
*293 FILLER_13_441
*294 FILLER_13_447
*295 FILLER_13_449
*296 FILLER_13_461
*297 FILLER_13_473
*298 FILLER_13_485
*299 FILLER_13_497
*300 FILLER_13_503
*301 FILLER_13_505
*302 FILLER_13_51
*303 FILLER_13_513
*304 FILLER_13_55
*305 FILLER_13_57
*306 FILLER_13_69
*307 FILLER_13_81
*308 FILLER_13_93
*309 FILLER_14_109
*310 FILLER_14_121
*311 FILLER_14_133
*312 FILLER_14_139
*313 FILLER_14_141
*314 FILLER_14_15
*315 FILLER_14_153
*316 FILLER_14_165
*317 FILLER_14_177
*318 FILLER_14_189
*319 FILLER_14_195
*320 FILLER_14_197
*321 FILLER_14_209
*322 FILLER_14_221
*323 FILLER_14_233
*324 FILLER_14_245
*325 FILLER_14_251
*326 FILLER_14_253
*327 FILLER_14_265
*328 FILLER_14_27
*329 FILLER_14_277
*330 FILLER_14_289
*331 FILLER_14_29
*332 FILLER_14_3
*333 FILLER_14_301
*334 FILLER_14_307
*335 FILLER_14_309
*336 FILLER_14_321
*337 FILLER_14_333
*338 FILLER_14_345
*339 FILLER_14_357
*340 FILLER_14_363
*341 FILLER_14_365
*342 FILLER_14_377
*343 FILLER_14_389
*344 FILLER_14_401
*345 FILLER_14_41
*346 FILLER_14_413
*347 FILLER_14_419
*348 FILLER_14_421
*349 FILLER_14_433
*350 FILLER_14_445
*351 FILLER_14_457
*352 FILLER_14_469
*353 FILLER_14_475
*354 FILLER_14_477
*355 FILLER_14_489
*356 FILLER_14_501
*357 FILLER_14_513
*358 FILLER_14_53
*359 FILLER_14_65
*360 FILLER_14_77
*361 FILLER_14_83
*362 FILLER_14_85
*363 FILLER_14_97
*364 FILLER_15_105
*365 FILLER_15_111
*366 FILLER_15_113
*367 FILLER_15_125
*368 FILLER_15_137
*369 FILLER_15_149
*370 FILLER_15_15
*371 FILLER_15_161
*372 FILLER_15_167
*373 FILLER_15_169
*374 FILLER_15_181
*375 FILLER_15_193
*376 FILLER_15_205
*377 FILLER_15_217
*378 FILLER_15_223
*379 FILLER_15_225
*380 FILLER_15_237
*381 FILLER_15_249
*382 FILLER_15_261
*383 FILLER_15_27
*384 FILLER_15_273
*385 FILLER_15_279
*386 FILLER_15_281
*387 FILLER_15_293
*388 FILLER_15_3
*389 FILLER_15_305
*390 FILLER_15_317
*391 FILLER_15_329
*392 FILLER_15_335
*393 FILLER_15_337
*394 FILLER_15_349
*395 FILLER_15_361
*396 FILLER_15_373
*397 FILLER_15_385
*398 FILLER_15_39
*399 FILLER_15_391
*400 FILLER_15_393
*401 FILLER_15_405
*402 FILLER_15_417
*403 FILLER_15_429
*404 FILLER_15_441
*405 FILLER_15_447
*406 FILLER_15_449
*407 FILLER_15_461
*408 FILLER_15_473
*409 FILLER_15_485
*410 FILLER_15_497
*411 FILLER_15_503
*412 FILLER_15_505
*413 FILLER_15_51
*414 FILLER_15_513
*415 FILLER_15_55
*416 FILLER_15_57
*417 FILLER_15_69
*418 FILLER_15_81
*419 FILLER_15_93
*420 FILLER_16_109
*421 FILLER_16_121
*422 FILLER_16_133
*423 FILLER_16_139
*424 FILLER_16_141
*425 FILLER_16_15
*426 FILLER_16_153
*427 FILLER_16_165
*428 FILLER_16_177
*429 FILLER_16_189
*430 FILLER_16_195
*431 FILLER_16_197
*432 FILLER_16_209
*433 FILLER_16_221
*434 FILLER_16_233
*435 FILLER_16_245
*436 FILLER_16_251
*437 FILLER_16_253
*438 FILLER_16_265
*439 FILLER_16_27
*440 FILLER_16_277
*441 FILLER_16_289
*442 FILLER_16_29
*443 FILLER_16_3
*444 FILLER_16_301
*445 FILLER_16_307
*446 FILLER_16_309
*447 FILLER_16_321
*448 FILLER_16_333
*449 FILLER_16_345
*450 FILLER_16_357
*451 FILLER_16_363
*452 FILLER_16_365
*453 FILLER_16_377
*454 FILLER_16_389
*455 FILLER_16_401
*456 FILLER_16_41
*457 FILLER_16_413
*458 FILLER_16_419
*459 FILLER_16_421
*460 FILLER_16_433
*461 FILLER_16_445
*462 FILLER_16_457
*463 FILLER_16_469
*464 FILLER_16_475
*465 FILLER_16_477
*466 FILLER_16_489
*467 FILLER_16_501
*468 FILLER_16_513
*469 FILLER_16_53
*470 FILLER_16_65
*471 FILLER_16_77
*472 FILLER_16_83
*473 FILLER_16_85
*474 FILLER_16_97
*475 FILLER_17_105
*476 FILLER_17_111
*477 FILLER_17_113
*478 FILLER_17_125
*479 FILLER_17_137
*480 FILLER_17_149
*481 FILLER_17_15
*482 FILLER_17_161
*483 FILLER_17_167
*484 FILLER_17_169
*485 FILLER_17_181
*486 FILLER_17_193
*487 FILLER_17_205
*488 FILLER_17_217
*489 FILLER_17_223
*490 FILLER_17_225
*491 FILLER_17_237
*492 FILLER_17_249
*493 FILLER_17_261
*494 FILLER_17_27
*495 FILLER_17_273
*496 FILLER_17_279
*497 FILLER_17_281
*498 FILLER_17_293
*499 FILLER_17_3
*500 FILLER_17_305
*501 FILLER_17_317
*502 FILLER_17_329
*503 FILLER_17_335
*504 FILLER_17_337
*505 FILLER_17_349
*506 FILLER_17_361
*507 FILLER_17_373
*508 FILLER_17_385
*509 FILLER_17_39
*510 FILLER_17_391
*511 FILLER_17_393
*512 FILLER_17_405
*513 FILLER_17_417
*514 FILLER_17_429
*515 FILLER_17_441
*516 FILLER_17_447
*517 FILLER_17_449
*518 FILLER_17_461
*519 FILLER_17_473
*520 FILLER_17_485
*521 FILLER_17_497
*522 FILLER_17_503
*523 FILLER_17_505
*524 FILLER_17_51
*525 FILLER_17_513
*526 FILLER_17_55
*527 FILLER_17_57
*528 FILLER_17_69
*529 FILLER_17_81
*530 FILLER_17_93
*531 FILLER_18_109
*532 FILLER_18_121
*533 FILLER_18_133
*534 FILLER_18_139
*535 FILLER_18_141
*536 FILLER_18_15
*537 FILLER_18_153
*538 FILLER_18_165
*539 FILLER_18_177
*540 FILLER_18_189
*541 FILLER_18_195
*542 FILLER_18_197
*543 FILLER_18_209
*544 FILLER_18_221
*545 FILLER_18_233
*546 FILLER_18_245
*547 FILLER_18_251
*548 FILLER_18_253
*549 FILLER_18_265
*550 FILLER_18_27
*551 FILLER_18_277
*552 FILLER_18_289
*553 FILLER_18_29
*554 FILLER_18_3
*555 FILLER_18_301
*556 FILLER_18_307
*557 FILLER_18_309
*558 FILLER_18_321
*559 FILLER_18_333
*560 FILLER_18_345
*561 FILLER_18_357
*562 FILLER_18_363
*563 FILLER_18_365
*564 FILLER_18_377
*565 FILLER_18_389
*566 FILLER_18_401
*567 FILLER_18_41
*568 FILLER_18_413
*569 FILLER_18_419
*570 FILLER_18_421
*571 FILLER_18_433
*572 FILLER_18_445
*573 FILLER_18_457
*574 FILLER_18_469
*575 FILLER_18_475
*576 FILLER_18_477
*577 FILLER_18_489
*578 FILLER_18_501
*579 FILLER_18_513
*580 FILLER_18_53
*581 FILLER_18_65
*582 FILLER_18_77
*583 FILLER_18_83
*584 FILLER_18_85
*585 FILLER_18_97
*586 FILLER_19_105
*587 FILLER_19_111
*588 FILLER_19_113
*589 FILLER_19_125
*590 FILLER_19_137
*591 FILLER_19_149
*592 FILLER_19_15
*593 FILLER_19_161
*594 FILLER_19_167
*595 FILLER_19_169
*596 FILLER_19_181
*597 FILLER_19_193
*598 FILLER_19_205
*599 FILLER_19_217
*600 FILLER_19_223
*601 FILLER_19_225
*602 FILLER_19_237
*603 FILLER_19_249
*604 FILLER_19_261
*605 FILLER_19_27
*606 FILLER_19_273
*607 FILLER_19_279
*608 FILLER_19_281
*609 FILLER_19_293
*610 FILLER_19_3
*611 FILLER_19_305
*612 FILLER_19_317
*613 FILLER_19_329
*614 FILLER_19_335
*615 FILLER_19_337
*616 FILLER_19_349
*617 FILLER_19_361
*618 FILLER_19_373
*619 FILLER_19_385
*620 FILLER_19_39
*621 FILLER_19_391
*622 FILLER_19_393
*623 FILLER_19_405
*624 FILLER_19_417
*625 FILLER_19_429
*626 FILLER_19_441
*627 FILLER_19_447
*628 FILLER_19_449
*629 FILLER_19_461
*630 FILLER_19_473
*631 FILLER_19_485
*632 FILLER_19_497
*633 FILLER_19_503
*634 FILLER_19_505
*635 FILLER_19_51
*636 FILLER_19_513
*637 FILLER_19_55
*638 FILLER_19_57
*639 FILLER_19_69
*640 FILLER_19_81
*641 FILLER_19_93
*642 FILLER_1_105
*643 FILLER_1_111
*644 FILLER_1_113
*645 FILLER_1_125
*646 FILLER_1_137
*647 FILLER_1_149
*648 FILLER_1_15
*649 FILLER_1_161
*650 FILLER_1_167
*651 FILLER_1_169
*652 FILLER_1_181
*653 FILLER_1_193
*654 FILLER_1_205
*655 FILLER_1_217
*656 FILLER_1_223
*657 FILLER_1_225
*658 FILLER_1_237
*659 FILLER_1_249
*660 FILLER_1_261
*661 FILLER_1_27
*662 FILLER_1_273
*663 FILLER_1_279
*664 FILLER_1_281
*665 FILLER_1_293
*666 FILLER_1_3
*667 FILLER_1_305
*668 FILLER_1_317
*669 FILLER_1_329
*670 FILLER_1_335
*671 FILLER_1_337
*672 FILLER_1_349
*673 FILLER_1_361
*674 FILLER_1_373
*675 FILLER_1_385
*676 FILLER_1_39
*677 FILLER_1_391
*678 FILLER_1_393
*679 FILLER_1_401
*680 FILLER_1_413
*681 FILLER_1_425
*682 FILLER_1_437
*683 FILLER_1_445
*684 FILLER_1_449
*685 FILLER_1_461
*686 FILLER_1_473
*687 FILLER_1_485
*688 FILLER_1_497
*689 FILLER_1_503
*690 FILLER_1_505
*691 FILLER_1_51
*692 FILLER_1_513
*693 FILLER_1_55
*694 FILLER_1_57
*695 FILLER_1_69
*696 FILLER_1_81
*697 FILLER_1_93
*698 FILLER_20_109
*699 FILLER_20_121
*700 FILLER_20_133
*701 FILLER_20_139
*702 FILLER_20_141
*703 FILLER_20_15
*704 FILLER_20_153
*705 FILLER_20_165
*706 FILLER_20_177
*707 FILLER_20_189
*708 FILLER_20_195
*709 FILLER_20_197
*710 FILLER_20_209
*711 FILLER_20_221
*712 FILLER_20_233
*713 FILLER_20_245
*714 FILLER_20_251
*715 FILLER_20_253
*716 FILLER_20_265
*717 FILLER_20_27
*718 FILLER_20_277
*719 FILLER_20_289
*720 FILLER_20_29
*721 FILLER_20_3
*722 FILLER_20_301
*723 FILLER_20_307
*724 FILLER_20_309
*725 FILLER_20_321
*726 FILLER_20_333
*727 FILLER_20_345
*728 FILLER_20_357
*729 FILLER_20_363
*730 FILLER_20_365
*731 FILLER_20_377
*732 FILLER_20_389
*733 FILLER_20_401
*734 FILLER_20_41
*735 FILLER_20_413
*736 FILLER_20_419
*737 FILLER_20_421
*738 FILLER_20_433
*739 FILLER_20_445
*740 FILLER_20_457
*741 FILLER_20_469
*742 FILLER_20_475
*743 FILLER_20_477
*744 FILLER_20_489
*745 FILLER_20_501
*746 FILLER_20_513
*747 FILLER_20_53
*748 FILLER_20_65
*749 FILLER_20_77
*750 FILLER_20_83
*751 FILLER_20_85
*752 FILLER_20_97
*753 FILLER_21_105
*754 FILLER_21_111
*755 FILLER_21_113
*756 FILLER_21_125
*757 FILLER_21_137
*758 FILLER_21_149
*759 FILLER_21_15
*760 FILLER_21_161
*761 FILLER_21_167
*762 FILLER_21_169
*763 FILLER_21_181
*764 FILLER_21_193
*765 FILLER_21_205
*766 FILLER_21_217
*767 FILLER_21_223
*768 FILLER_21_225
*769 FILLER_21_237
*770 FILLER_21_249
*771 FILLER_21_261
*772 FILLER_21_27
*773 FILLER_21_273
*774 FILLER_21_279
*775 FILLER_21_281
*776 FILLER_21_293
*777 FILLER_21_3
*778 FILLER_21_305
*779 FILLER_21_317
*780 FILLER_21_329
*781 FILLER_21_335
*782 FILLER_21_337
*783 FILLER_21_349
*784 FILLER_21_361
*785 FILLER_21_373
*786 FILLER_21_385
*787 FILLER_21_39
*788 FILLER_21_391
*789 FILLER_21_393
*790 FILLER_21_405
*791 FILLER_21_417
*792 FILLER_21_429
*793 FILLER_21_441
*794 FILLER_21_447
*795 FILLER_21_449
*796 FILLER_21_461
*797 FILLER_21_473
*798 FILLER_21_485
*799 FILLER_21_497
*800 FILLER_21_503
*801 FILLER_21_505
*802 FILLER_21_51
*803 FILLER_21_513
*804 FILLER_21_55
*805 FILLER_21_57
*806 FILLER_21_69
*807 FILLER_21_81
*808 FILLER_21_93
*809 FILLER_22_109
*810 FILLER_22_121
*811 FILLER_22_133
*812 FILLER_22_139
*813 FILLER_22_141
*814 FILLER_22_15
*815 FILLER_22_153
*816 FILLER_22_165
*817 FILLER_22_177
*818 FILLER_22_189
*819 FILLER_22_195
*820 FILLER_22_197
*821 FILLER_22_209
*822 FILLER_22_221
*823 FILLER_22_233
*824 FILLER_22_245
*825 FILLER_22_251
*826 FILLER_22_253
*827 FILLER_22_265
*828 FILLER_22_27
*829 FILLER_22_277
*830 FILLER_22_289
*831 FILLER_22_29
*832 FILLER_22_3
*833 FILLER_22_301
*834 FILLER_22_307
*835 FILLER_22_309
*836 FILLER_22_321
*837 FILLER_22_333
*838 FILLER_22_345
*839 FILLER_22_357
*840 FILLER_22_363
*841 FILLER_22_365
*842 FILLER_22_377
*843 FILLER_22_389
*844 FILLER_22_401
*845 FILLER_22_41
*846 FILLER_22_413
*847 FILLER_22_419
*848 FILLER_22_421
*849 FILLER_22_433
*850 FILLER_22_445
*851 FILLER_22_457
*852 FILLER_22_469
*853 FILLER_22_475
*854 FILLER_22_477
*855 FILLER_22_489
*856 FILLER_22_501
*857 FILLER_22_513
*858 FILLER_22_53
*859 FILLER_22_65
*860 FILLER_22_77
*861 FILLER_22_83
*862 FILLER_22_85
*863 FILLER_22_97
*864 FILLER_23_105
*865 FILLER_23_111
*866 FILLER_23_113
*867 FILLER_23_125
*868 FILLER_23_137
*869 FILLER_23_149
*870 FILLER_23_15
*871 FILLER_23_161
*872 FILLER_23_167
*873 FILLER_23_169
*874 FILLER_23_181
*875 FILLER_23_193
*876 FILLER_23_205
*877 FILLER_23_217
*878 FILLER_23_223
*879 FILLER_23_225
*880 FILLER_23_237
*881 FILLER_23_249
*882 FILLER_23_261
*883 FILLER_23_27
*884 FILLER_23_273
*885 FILLER_23_279
*886 FILLER_23_281
*887 FILLER_23_293
*888 FILLER_23_3
*889 FILLER_23_305
*890 FILLER_23_317
*891 FILLER_23_329
*892 FILLER_23_335
*893 FILLER_23_337
*894 FILLER_23_349
*895 FILLER_23_361
*896 FILLER_23_373
*897 FILLER_23_385
*898 FILLER_23_39
*899 FILLER_23_391
*900 FILLER_23_393
*901 FILLER_23_405
*902 FILLER_23_417
*903 FILLER_23_429
*904 FILLER_23_441
*905 FILLER_23_447
*906 FILLER_23_449
*907 FILLER_23_461
*908 FILLER_23_473
*909 FILLER_23_485
*910 FILLER_23_497
*911 FILLER_23_503
*912 FILLER_23_505
*913 FILLER_23_51
*914 FILLER_23_513
*915 FILLER_23_55
*916 FILLER_23_57
*917 FILLER_23_69
*918 FILLER_23_81
*919 FILLER_23_93
*920 FILLER_24_109
*921 FILLER_24_121
*922 FILLER_24_133
*923 FILLER_24_139
*924 FILLER_24_141
*925 FILLER_24_15
*926 FILLER_24_153
*927 FILLER_24_165
*928 FILLER_24_177
*929 FILLER_24_189
*930 FILLER_24_195
*931 FILLER_24_197
*932 FILLER_24_209
*933 FILLER_24_221
*934 FILLER_24_233
*935 FILLER_24_245
*936 FILLER_24_251
*937 FILLER_24_253
*938 FILLER_24_265
*939 FILLER_24_27
*940 FILLER_24_277
*941 FILLER_24_289
*942 FILLER_24_29
*943 FILLER_24_3
*944 FILLER_24_301
*945 FILLER_24_307
*946 FILLER_24_309
*947 FILLER_24_321
*948 FILLER_24_333
*949 FILLER_24_345
*950 FILLER_24_357
*951 FILLER_24_363
*952 FILLER_24_365
*953 FILLER_24_377
*954 FILLER_24_389
*955 FILLER_24_401
*956 FILLER_24_41
*957 FILLER_24_413
*958 FILLER_24_419
*959 FILLER_24_421
*960 FILLER_24_433
*961 FILLER_24_445
*962 FILLER_24_457
*963 FILLER_24_469
*964 FILLER_24_475
*965 FILLER_24_477
*966 FILLER_24_489
*967 FILLER_24_501
*968 FILLER_24_513
*969 FILLER_24_53
*970 FILLER_24_65
*971 FILLER_24_77
*972 FILLER_24_83
*973 FILLER_24_85
*974 FILLER_24_97
*975 FILLER_25_105
*976 FILLER_25_111
*977 FILLER_25_113
*978 FILLER_25_125
*979 FILLER_25_137
*980 FILLER_25_149
*981 FILLER_25_15
*982 FILLER_25_161
*983 FILLER_25_167
*984 FILLER_25_169
*985 FILLER_25_181
*986 FILLER_25_193
*987 FILLER_25_205
*988 FILLER_25_217
*989 FILLER_25_223
*990 FILLER_25_225
*991 FILLER_25_237
*992 FILLER_25_249
*993 FILLER_25_261
*994 FILLER_25_27
*995 FILLER_25_273
*996 FILLER_25_279
*997 FILLER_25_281
*998 FILLER_25_293
*999 FILLER_25_3
*1000 FILLER_25_305
*1001 FILLER_25_317
*1002 FILLER_25_329
*1003 FILLER_25_335
*1004 FILLER_25_337
*1005 FILLER_25_349
*1006 FILLER_25_361
*1007 FILLER_25_373
*1008 FILLER_25_385
*1009 FILLER_25_39
*1010 FILLER_25_391
*1011 FILLER_25_393
*1012 FILLER_25_405
*1013 FILLER_25_417
*1014 FILLER_25_429
*1015 FILLER_25_441
*1016 FILLER_25_447
*1017 FILLER_25_449
*1018 FILLER_25_461
*1019 FILLER_25_473
*1020 FILLER_25_485
*1021 FILLER_25_497
*1022 FILLER_25_503
*1023 FILLER_25_505
*1024 FILLER_25_51
*1025 FILLER_25_513
*1026 FILLER_25_55
*1027 FILLER_25_57
*1028 FILLER_25_69
*1029 FILLER_25_81
*1030 FILLER_25_93
*1031 FILLER_26_109
*1032 FILLER_26_121
*1033 FILLER_26_133
*1034 FILLER_26_139
*1035 FILLER_26_141
*1036 FILLER_26_15
*1037 FILLER_26_153
*1038 FILLER_26_165
*1039 FILLER_26_177
*1040 FILLER_26_189
*1041 FILLER_26_195
*1042 FILLER_26_197
*1043 FILLER_26_209
*1044 FILLER_26_221
*1045 FILLER_26_233
*1046 FILLER_26_245
*1047 FILLER_26_251
*1048 FILLER_26_253
*1049 FILLER_26_265
*1050 FILLER_26_27
*1051 FILLER_26_277
*1052 FILLER_26_289
*1053 FILLER_26_29
*1054 FILLER_26_3
*1055 FILLER_26_301
*1056 FILLER_26_307
*1057 FILLER_26_309
*1058 FILLER_26_321
*1059 FILLER_26_333
*1060 FILLER_26_345
*1061 FILLER_26_357
*1062 FILLER_26_363
*1063 FILLER_26_365
*1064 FILLER_26_377
*1065 FILLER_26_389
*1066 FILLER_26_401
*1067 FILLER_26_41
*1068 FILLER_26_413
*1069 FILLER_26_419
*1070 FILLER_26_421
*1071 FILLER_26_433
*1072 FILLER_26_445
*1073 FILLER_26_457
*1074 FILLER_26_469
*1075 FILLER_26_475
*1076 FILLER_26_477
*1077 FILLER_26_489
*1078 FILLER_26_501
*1079 FILLER_26_513
*1080 FILLER_26_53
*1081 FILLER_26_65
*1082 FILLER_26_77
*1083 FILLER_26_83
*1084 FILLER_26_85
*1085 FILLER_26_97
*1086 FILLER_27_105
*1087 FILLER_27_111
*1088 FILLER_27_113
*1089 FILLER_27_125
*1090 FILLER_27_137
*1091 FILLER_27_149
*1092 FILLER_27_15
*1093 FILLER_27_161
*1094 FILLER_27_167
*1095 FILLER_27_169
*1096 FILLER_27_181
*1097 FILLER_27_193
*1098 FILLER_27_205
*1099 FILLER_27_217
*1100 FILLER_27_223
*1101 FILLER_27_225
*1102 FILLER_27_237
*1103 FILLER_27_249
*1104 FILLER_27_261
*1105 FILLER_27_27
*1106 FILLER_27_273
*1107 FILLER_27_279
*1108 FILLER_27_281
*1109 FILLER_27_293
*1110 FILLER_27_3
*1111 FILLER_27_305
*1112 FILLER_27_317
*1113 FILLER_27_329
*1114 FILLER_27_335
*1115 FILLER_27_337
*1116 FILLER_27_349
*1117 FILLER_27_361
*1118 FILLER_27_373
*1119 FILLER_27_385
*1120 FILLER_27_39
*1121 FILLER_27_391
*1122 FILLER_27_393
*1123 FILLER_27_405
*1124 FILLER_27_417
*1125 FILLER_27_429
*1126 FILLER_27_441
*1127 FILLER_27_447
*1128 FILLER_27_449
*1129 FILLER_27_461
*1130 FILLER_27_473
*1131 FILLER_27_485
*1132 FILLER_27_497
*1133 FILLER_27_503
*1134 FILLER_27_505
*1135 FILLER_27_51
*1136 FILLER_27_513
*1137 FILLER_27_55
*1138 FILLER_27_57
*1139 FILLER_27_69
*1140 FILLER_27_81
*1141 FILLER_27_93
*1142 FILLER_28_109
*1143 FILLER_28_121
*1144 FILLER_28_133
*1145 FILLER_28_139
*1146 FILLER_28_141
*1147 FILLER_28_15
*1148 FILLER_28_153
*1149 FILLER_28_165
*1150 FILLER_28_177
*1151 FILLER_28_189
*1152 FILLER_28_195
*1153 FILLER_28_197
*1154 FILLER_28_209
*1155 FILLER_28_221
*1156 FILLER_28_233
*1157 FILLER_28_245
*1158 FILLER_28_251
*1159 FILLER_28_253
*1160 FILLER_28_265
*1161 FILLER_28_27
*1162 FILLER_28_277
*1163 FILLER_28_289
*1164 FILLER_28_29
*1165 FILLER_28_3
*1166 FILLER_28_301
*1167 FILLER_28_307
*1168 FILLER_28_309
*1169 FILLER_28_321
*1170 FILLER_28_333
*1171 FILLER_28_345
*1172 FILLER_28_357
*1173 FILLER_28_363
*1174 FILLER_28_365
*1175 FILLER_28_377
*1176 FILLER_28_389
*1177 FILLER_28_401
*1178 FILLER_28_41
*1179 FILLER_28_413
*1180 FILLER_28_419
*1181 FILLER_28_421
*1182 FILLER_28_433
*1183 FILLER_28_445
*1184 FILLER_28_457
*1185 FILLER_28_469
*1186 FILLER_28_475
*1187 FILLER_28_477
*1188 FILLER_28_489
*1189 FILLER_28_501
*1190 FILLER_28_513
*1191 FILLER_28_53
*1192 FILLER_28_65
*1193 FILLER_28_77
*1194 FILLER_28_83
*1195 FILLER_28_85
*1196 FILLER_28_97
*1197 FILLER_29_105
*1198 FILLER_29_111
*1199 FILLER_29_113
*1200 FILLER_29_125
*1201 FILLER_29_137
*1202 FILLER_29_149
*1203 FILLER_29_15
*1204 FILLER_29_161
*1205 FILLER_29_167
*1206 FILLER_29_169
*1207 FILLER_29_181
*1208 FILLER_29_193
*1209 FILLER_29_205
*1210 FILLER_29_217
*1211 FILLER_29_223
*1212 FILLER_29_225
*1213 FILLER_29_237
*1214 FILLER_29_249
*1215 FILLER_29_261
*1216 FILLER_29_27
*1217 FILLER_29_273
*1218 FILLER_29_279
*1219 FILLER_29_281
*1220 FILLER_29_293
*1221 FILLER_29_3
*1222 FILLER_29_305
*1223 FILLER_29_317
*1224 FILLER_29_329
*1225 FILLER_29_335
*1226 FILLER_29_337
*1227 FILLER_29_349
*1228 FILLER_29_361
*1229 FILLER_29_373
*1230 FILLER_29_385
*1231 FILLER_29_39
*1232 FILLER_29_391
*1233 FILLER_29_393
*1234 FILLER_29_405
*1235 FILLER_29_417
*1236 FILLER_29_429
*1237 FILLER_29_441
*1238 FILLER_29_447
*1239 FILLER_29_449
*1240 FILLER_29_461
*1241 FILLER_29_473
*1242 FILLER_29_485
*1243 FILLER_29_497
*1244 FILLER_29_503
*1245 FILLER_29_505
*1246 FILLER_29_51
*1247 FILLER_29_513
*1248 FILLER_29_55
*1249 FILLER_29_57
*1250 FILLER_29_69
*1251 FILLER_29_81
*1252 FILLER_29_93
*1253 FILLER_2_109
*1254 FILLER_2_121
*1255 FILLER_2_133
*1256 FILLER_2_139
*1257 FILLER_2_141
*1258 FILLER_2_15
*1259 FILLER_2_153
*1260 FILLER_2_165
*1261 FILLER_2_177
*1262 FILLER_2_189
*1263 FILLER_2_195
*1264 FILLER_2_197
*1265 FILLER_2_209
*1266 FILLER_2_221
*1267 FILLER_2_233
*1268 FILLER_2_245
*1269 FILLER_2_251
*1270 FILLER_2_253
*1271 FILLER_2_265
*1272 FILLER_2_27
*1273 FILLER_2_277
*1274 FILLER_2_289
*1275 FILLER_2_29
*1276 FILLER_2_3
*1277 FILLER_2_301
*1278 FILLER_2_307
*1279 FILLER_2_309
*1280 FILLER_2_321
*1281 FILLER_2_333
*1282 FILLER_2_345
*1283 FILLER_2_357
*1284 FILLER_2_363
*1285 FILLER_2_365
*1286 FILLER_2_377
*1287 FILLER_2_389
*1288 FILLER_2_401
*1289 FILLER_2_41
*1290 FILLER_2_413
*1291 FILLER_2_419
*1292 FILLER_2_421
*1293 FILLER_2_433
*1294 FILLER_2_445
*1295 FILLER_2_457
*1296 FILLER_2_469
*1297 FILLER_2_475
*1298 FILLER_2_477
*1299 FILLER_2_489
*1300 FILLER_2_501
*1301 FILLER_2_513
*1302 FILLER_2_53
*1303 FILLER_2_65
*1304 FILLER_2_77
*1305 FILLER_2_83
*1306 FILLER_2_85
*1307 FILLER_2_97
*1308 FILLER_30_109
*1309 FILLER_30_121
*1310 FILLER_30_133
*1311 FILLER_30_139
*1312 FILLER_30_141
*1313 FILLER_30_15
*1314 FILLER_30_153
*1315 FILLER_30_165
*1316 FILLER_30_177
*1317 FILLER_30_189
*1318 FILLER_30_195
*1319 FILLER_30_197
*1320 FILLER_30_209
*1321 FILLER_30_221
*1322 FILLER_30_233
*1323 FILLER_30_245
*1324 FILLER_30_251
*1325 FILLER_30_253
*1326 FILLER_30_265
*1327 FILLER_30_27
*1328 FILLER_30_277
*1329 FILLER_30_289
*1330 FILLER_30_29
*1331 FILLER_30_3
*1332 FILLER_30_301
*1333 FILLER_30_307
*1334 FILLER_30_309
*1335 FILLER_30_321
*1336 FILLER_30_333
*1337 FILLER_30_345
*1338 FILLER_30_357
*1339 FILLER_30_363
*1340 FILLER_30_365
*1341 FILLER_30_377
*1342 FILLER_30_389
*1343 FILLER_30_401
*1344 FILLER_30_41
*1345 FILLER_30_413
*1346 FILLER_30_419
*1347 FILLER_30_421
*1348 FILLER_30_433
*1349 FILLER_30_445
*1350 FILLER_30_457
*1351 FILLER_30_469
*1352 FILLER_30_475
*1353 FILLER_30_477
*1354 FILLER_30_489
*1355 FILLER_30_501
*1356 FILLER_30_513
*1357 FILLER_30_53
*1358 FILLER_30_65
*1359 FILLER_30_77
*1360 FILLER_30_83
*1361 FILLER_30_85
*1362 FILLER_30_97
*1363 FILLER_31_105
*1364 FILLER_31_111
*1365 FILLER_31_113
*1366 FILLER_31_125
*1367 FILLER_31_137
*1368 FILLER_31_149
*1369 FILLER_31_15
*1370 FILLER_31_161
*1371 FILLER_31_167
*1372 FILLER_31_169
*1373 FILLER_31_181
*1374 FILLER_31_193
*1375 FILLER_31_205
*1376 FILLER_31_217
*1377 FILLER_31_223
*1378 FILLER_31_225
*1379 FILLER_31_237
*1380 FILLER_31_249
*1381 FILLER_31_261
*1382 FILLER_31_27
*1383 FILLER_31_273
*1384 FILLER_31_279
*1385 FILLER_31_281
*1386 FILLER_31_293
*1387 FILLER_31_3
*1388 FILLER_31_305
*1389 FILLER_31_317
*1390 FILLER_31_329
*1391 FILLER_31_335
*1392 FILLER_31_337
*1393 FILLER_31_349
*1394 FILLER_31_361
*1395 FILLER_31_373
*1396 FILLER_31_385
*1397 FILLER_31_39
*1398 FILLER_31_391
*1399 FILLER_31_393
*1400 FILLER_31_405
*1401 FILLER_31_417
*1402 FILLER_31_429
*1403 FILLER_31_441
*1404 FILLER_31_447
*1405 FILLER_31_449
*1406 FILLER_31_461
*1407 FILLER_31_473
*1408 FILLER_31_485
*1409 FILLER_31_497
*1410 FILLER_31_503
*1411 FILLER_31_505
*1412 FILLER_31_51
*1413 FILLER_31_513
*1414 FILLER_31_55
*1415 FILLER_31_57
*1416 FILLER_31_69
*1417 FILLER_31_81
*1418 FILLER_31_93
*1419 FILLER_32_109
*1420 FILLER_32_121
*1421 FILLER_32_133
*1422 FILLER_32_139
*1423 FILLER_32_141
*1424 FILLER_32_15
*1425 FILLER_32_153
*1426 FILLER_32_165
*1427 FILLER_32_177
*1428 FILLER_32_189
*1429 FILLER_32_195
*1430 FILLER_32_197
*1431 FILLER_32_209
*1432 FILLER_32_221
*1433 FILLER_32_233
*1434 FILLER_32_245
*1435 FILLER_32_251
*1436 FILLER_32_253
*1437 FILLER_32_265
*1438 FILLER_32_27
*1439 FILLER_32_277
*1440 FILLER_32_289
*1441 FILLER_32_29
*1442 FILLER_32_3
*1443 FILLER_32_301
*1444 FILLER_32_307
*1445 FILLER_32_309
*1446 FILLER_32_321
*1447 FILLER_32_333
*1448 FILLER_32_345
*1449 FILLER_32_357
*1450 FILLER_32_363
*1451 FILLER_32_365
*1452 FILLER_32_377
*1453 FILLER_32_389
*1454 FILLER_32_401
*1455 FILLER_32_41
*1456 FILLER_32_413
*1457 FILLER_32_419
*1458 FILLER_32_421
*1459 FILLER_32_433
*1460 FILLER_32_445
*1461 FILLER_32_457
*1462 FILLER_32_469
*1463 FILLER_32_475
*1464 FILLER_32_477
*1465 FILLER_32_489
*1466 FILLER_32_501
*1467 FILLER_32_513
*1468 FILLER_32_53
*1469 FILLER_32_65
*1470 FILLER_32_77
*1471 FILLER_32_83
*1472 FILLER_32_85
*1473 FILLER_32_97
*1474 FILLER_33_105
*1475 FILLER_33_111
*1476 FILLER_33_113
*1477 FILLER_33_125
*1478 FILLER_33_137
*1479 FILLER_33_149
*1480 FILLER_33_15
*1481 FILLER_33_161
*1482 FILLER_33_167
*1483 FILLER_33_169
*1484 FILLER_33_181
*1485 FILLER_33_193
*1486 FILLER_33_205
*1487 FILLER_33_217
*1488 FILLER_33_223
*1489 FILLER_33_225
*1490 FILLER_33_237
*1491 FILLER_33_249
*1492 FILLER_33_261
*1493 FILLER_33_27
*1494 FILLER_33_273
*1495 FILLER_33_279
*1496 FILLER_33_281
*1497 FILLER_33_293
*1498 FILLER_33_3
*1499 FILLER_33_305
*1500 FILLER_33_317
*1501 FILLER_33_329
*1502 FILLER_33_335
*1503 FILLER_33_337
*1504 FILLER_33_349
*1505 FILLER_33_361
*1506 FILLER_33_373
*1507 FILLER_33_385
*1508 FILLER_33_39
*1509 FILLER_33_391
*1510 FILLER_33_393
*1511 FILLER_33_405
*1512 FILLER_33_417
*1513 FILLER_33_429
*1514 FILLER_33_441
*1515 FILLER_33_447
*1516 FILLER_33_449
*1517 FILLER_33_461
*1518 FILLER_33_473
*1519 FILLER_33_485
*1520 FILLER_33_497
*1521 FILLER_33_503
*1522 FILLER_33_505
*1523 FILLER_33_51
*1524 FILLER_33_513
*1525 FILLER_33_55
*1526 FILLER_33_57
*1527 FILLER_33_69
*1528 FILLER_33_81
*1529 FILLER_33_93
*1530 FILLER_34_109
*1531 FILLER_34_121
*1532 FILLER_34_133
*1533 FILLER_34_139
*1534 FILLER_34_141
*1535 FILLER_34_15
*1536 FILLER_34_153
*1537 FILLER_34_165
*1538 FILLER_34_177
*1539 FILLER_34_189
*1540 FILLER_34_195
*1541 FILLER_34_197
*1542 FILLER_34_209
*1543 FILLER_34_221
*1544 FILLER_34_233
*1545 FILLER_34_245
*1546 FILLER_34_251
*1547 FILLER_34_253
*1548 FILLER_34_265
*1549 FILLER_34_27
*1550 FILLER_34_277
*1551 FILLER_34_289
*1552 FILLER_34_29
*1553 FILLER_34_3
*1554 FILLER_34_301
*1555 FILLER_34_307
*1556 FILLER_34_309
*1557 FILLER_34_321
*1558 FILLER_34_333
*1559 FILLER_34_345
*1560 FILLER_34_357
*1561 FILLER_34_363
*1562 FILLER_34_365
*1563 FILLER_34_377
*1564 FILLER_34_389
*1565 FILLER_34_401
*1566 FILLER_34_41
*1567 FILLER_34_413
*1568 FILLER_34_419
*1569 FILLER_34_421
*1570 FILLER_34_433
*1571 FILLER_34_445
*1572 FILLER_34_457
*1573 FILLER_34_469
*1574 FILLER_34_475